* Synopsys Nettran: RHEL64 R-2020.09-SP3-3.6450417 2021/04/23 
* Created:  12/15/2021   2:56   
* Options: -cell ringpll -sp /nfs/sc/proj/ips/appg_SR_001/ /netlists/spice/ringpll.sp_ununiq -outName /nfs/sc/proj/ips/appg_SR_001/ /netlists/spice/ringpll.sp -outType spice -retainComments spice -sp-chopXPrefix 

*.LENGTH_UNIT W WCON DX DY TERMLEN S
*.NON_UNIT MBOT TURNS MTOP TTYPE

* ***********************************************************************
*  Library Name: ip2229appgrngplllib_ihdk_sch
*  Cell Name:    pll_outbuf_hn_clk
*  View Name:    schematic
* ***********************************************************************
.SUBCKT ringpll__pll_outbuf_hn_clk a o vccx vssx
* .PININFO a:I vccx:I vssx:I o:O
Mqna o n0 vssx vssx nlvt W=360n L=40n M=3 
Mqn1 n0 a vssx vssx nlvt W=270n L=40n M=1 
Mqp1 n0 a vccx vccx plvt W=270n L=40n M=1 
Mqpa o n0 vccx vccx plvt W=315n L=40n M=4 
.ENDS

* ***********************************************************************
*  Library Name: nn
*  Cell Name:    b15ydp151an1n03x5
*  View Name:    schematic
* ***********************************************************************
.SUBCKT ringpll__b15ydp151an1n03x5 dpd1 vcc vssx m=1
* .PININFO dpd1:I vcc:B vssx:B
.ENDS

* ***********************************************************************
*  Library Name: intel22legacy
*  Cell Name:    inv_pcell_178
*  View Name:    schematic
* ***********************************************************************
.SUBCKT ringpll__inv_pcell_178 a o vccxx vssxx
* .PININFO a:I o:O vccxx:B vssxx:B
Mqna o a vssxx vssxx nlvt W=360n L=40n M=3 
Mqpa o a vccxx vccxx plvt W=315n L=40n M=4 
.ENDS

* ***********************************************************************
*  Library Name: intel22legacy
*  Cell Name:    no2_pcell_177
*  View Name:    schematic
* ***********************************************************************
.SUBCKT ringpll__no2_pcell_177 a b o vccxx vssxx
* .PININFO a:I b:I o:O vccxx:B vssxx:B
Mqna o a vssxx vssxx nlplvt W=90n L=40n M=1 
Mqnb o b vssxx vssxx nlplvt W=90n L=40n M=1 
Mqpb n1 b vccxx vccxx plplvt W=90n L=40n M=1 
Mqpa o a n1 vccxx plplvt W=90n L=40n M=1 
.ENDS

* ***********************************************************************
*  Library Name: hn
*  Cell Name:    b15nor002ah1n06x5
*  View Name:    schematic
* ***********************************************************************
.SUBCKT ringpll__b15nor002ah1n06x5 a b o1 vcc vssx m=1
* .PININFO a:I b:I o1:O vcc:B vssx:B
Mqp1 o1 a n1 vcc plvt W=360n L=40n M=1 
Mqp2 n1 b vcc vcc plvt W=360n L=40n M=1 
Mqn1 o1 a vssx vssx nlvt W=270n L=40n M=1 
Mqn2 o1 b vssx vssx nlvt W=270n L=40n M=1 
.ENDS

* ***********************************************************************
*  Library Name: hn
*  Cell Name:    b15inv020ah1n05x5
*  View Name:    schematic
* ***********************************************************************
.SUBCKT ringpll__b15inv020ah1n05x5 a o1 vcc vssx m=1
* .PININFO a:I o1:O vcc:B vssx:B
Mqp1 o1 a vcc vcc plvt W=180n L=40n M=1 
Mqn1 o1 a vssx vssx nlvt W=225n L=40n M=1 
.ENDS

* ***********************************************************************
*  Library Name: nn
*  Cell Name:    b15inv020an1n05x5
*  View Name:    schematic
* ***********************************************************************
.SUBCKT ringpll__b15inv020an1n05x5 a o1 vcc vssx m=1
* .PININFO a:I o1:O vcc:B vssx:B
Mqp1 o1 a vcc vcc p W=180n L=40n M=1 
Mqn1 o1 a vssx vssx n W=225n L=40n M=1 
.ENDS

* ***********************************************************************
*  Library Name: intel22legacy
*  Cell Name:    no3_pcell_176
*  View Name:    schematic
* ***********************************************************************
.SUBCKT ringpll__no3_pcell_176 a b c o vccxx vssxx
* .PININFO a:I b:I c:I o:O vccxx:B vssxx:B
Mqnc o c vssxx vssxx nlvt W=135n L=40n M=1 
Mqnb o b vssxx vssxx nlvt W=135n L=40n M=1 
Mqna o a vssxx vssxx nlvt W=135n L=40n M=1 
Mqpc n1 c vccxx vccxx plvt W=180n L=40n M=1 
Mqpb n2 b n1 vccxx plvt W=180n L=40n M=1 
Mqpa o a n2 vccxx plvt W=180n L=40n M=1 
.ENDS

* ***********************************************************************
*  Library Name: hn
*  Cell Name:    b15inv000ah1n05x5
*  View Name:    schematic
* ***********************************************************************
.SUBCKT ringpll__b15inv000ah1n05x5 a o1 vcc vssx m=1
* .PININFO a:I o1:O vcc:B vssx:B
Mqp1 o1 a vcc vcc plvt W=225n L=40n M=1 
Mqn1 o1 a vssx vssx nlvt W=225n L=40n M=1 
.ENDS

* ***********************************************************************
*  Library Name: hn
*  Cell Name:    b15oai013ah1n02x5
*  View Name:    schematic
* ***********************************************************************
.SUBCKT ringpll__b15oai013ah1n02x5 a b c d o1 vcc vssx m=1
* .PININFO a:I b:I c:I d:I o1:O vcc:B vssx:B
Mqp2 o1 b n2 vcc plvt W=135n L=40n M=1 
Mqp3 n2 c n3 vcc plvt W=135n L=40n M=1 
Mqp4 n3 d vcc vcc plvt W=135n L=40n M=1 
Mqp1 o1 a vcc vcc plvt W=90n L=40n M=1 
Mqn2 n1 b vssx vssx nlvt W=90n L=40n M=1 
Mqn3 n1 c vssx vssx nlvt W=90n L=40n M=1 
Mqn4 n1 d vssx vssx nlvt W=90n L=40n M=1 
Mqn1 o1 a n1 vssx nlvt W=90n L=40n M=1 
.ENDS

* ***********************************************************************
*  Library Name: hn
*  Cell Name:    b15inv040ah1n03x5
*  View Name:    schematic
* ***********************************************************************
.SUBCKT ringpll__b15inv040ah1n03x5 a o1 vcc vssx m=1
* .PININFO a:I o1:O vcc:B vssx:B
Mqp1 o1 a vcc vcc plvt W=180n L=40n M=1 
Mqn1 o1 a vssx vssx nlvt W=135n L=40n M=1 
.ENDS

* ***********************************************************************
*  Library Name: hn
*  Cell Name:    b15oai012ah1n02x5
*  View Name:    schematic
* ***********************************************************************
.SUBCKT ringpll__b15oai012ah1n02x5 a b c o1 vcc vssx m=1
* .PININFO a:I b:I c:I o1:O vcc:B vssx:B
Mqp3 n2 c vcc vcc plvt W=90n L=40n M=1 
Mqp1 o1 a vcc vcc plvt W=90n L=40n M=1 
Mqp2 o1 b n2 vcc plvt W=90n L=40n M=1 
Mqn1 o1 a n1 vssx nlvt W=90n L=40n M=1 
Mqn2 n1 b vssx vssx nlvt W=90n L=40n M=1 
Mqn3 n1 c vssx vssx nlvt W=90n L=40n M=1 
.ENDS

* ***********************************************************************
*  Library Name: ln
*  Cell Name:    b15oai013al1n02x5
*  View Name:    schematic
* ***********************************************************************
.SUBCKT ringpll__b15oai013al1n02x5 a b c d o1 vcc vssx m=1
* .PININFO a:I b:I c:I d:I o1:O vcc:B vssx:B
Mqp2 o1 b n2 vcc plp W=135n L=40n M=1 
Mqp3 n2 c n3 vcc plp W=135n L=40n M=1 
Mqp4 n3 d vcc vcc plp W=135n L=40n M=1 
Mqp1 o1 a vcc vcc plp W=90n L=40n M=1 
Mqn2 n1 b vssx vssx nlp W=90n L=40n M=1 
Mqn3 n1 c vssx vssx nlp W=90n L=40n M=1 
Mqn4 n1 d vssx vssx nlp W=90n L=40n M=1 
Mqn1 o1 a n1 vssx nlp W=90n L=40n M=1 
.ENDS

* ***********************************************************************
*  Library Name: intel22legacy
*  Cell Name:    no3_pcell_175
*  View Name:    schematic
* ***********************************************************************
.SUBCKT ringpll__no3_pcell_175 a b c o vccxx vssxx
* .PININFO a:I b:I c:I o:O vccxx:B vssxx:B
Mqnc o c vssxx vssxx nlp W=90n L=40n M=1 
Mqnb o b vssxx vssxx nlp W=90n L=40n M=1 
Mqna o a vssxx vssxx nlp W=90n L=40n M=1 
Mqpc n1 c vccxx vccxx plp W=135n L=40n M=1 
Mqpb n2 b n1 vccxx plp W=135n L=40n M=1 
Mqpa o a n2 vccxx plp W=135n L=40n M=1 
.ENDS

* ***********************************************************************
*  Library Name: ln
*  Cell Name:    b15nor004al1n02x3
*  View Name:    schematic
* ***********************************************************************
.SUBCKT ringpll__b15nor004al1n02x3 a b c d o1 vcc vssx m=1
* .PININFO a:I b:I c:I d:I o1:O vcc:B vssx:B
Mqp1 o1 a n1 vcc plp W=90n L=40n M=1 
Mqp2 n1 b n2 vcc plp W=90n L=40n M=1 
Mqp3 n2 c n3 vcc plp W=90n L=40n M=1 
Mqp4 n3 d vcc vcc plp W=90n L=40n M=1 
Mqn1 o1 a vssx vssx nlp W=90n L=40n M=1 
Mqn3 o1 c vssx vssx nlp W=90n L=40n M=1 
Mqn4 o1 d vssx vssx nlp W=90n L=40n M=1 
Mqn2 o1 b vssx vssx nlp W=90n L=40n M=1 
.ENDS

* ***********************************************************************
*  Library Name: ln
*  Cell Name:    b15nor003al1n02x7
*  View Name:    schematic
* ***********************************************************************
.SUBCKT ringpll__b15nor003al1n02x7 a b c o1 vcc vssx m=1
* .PININFO a:I b:I c:I o1:O vcc:B vssx:B
Mqp2 n1 b n2 vcc plp W=180n L=40n M=1 
Mqp3 n2 c vcc vcc plp W=180n L=40n M=1 
Mqp1 o1 a n1 vcc plp W=180n L=40n M=1 
Mqn2 o1 b vssx vssx nlp W=90n L=40n M=1 
Mqn1 o1 a vssx vssx nlp W=90n L=40n M=1 
Mqn3 o1 c vssx vssx nlp W=90n L=40n M=1 
.ENDS

* ***********************************************************************
*  Library Name: ln
*  Cell Name:    b15nano22al1n03x5
*  View Name:    schematic
* ***********************************************************************
.SUBCKT ringpll__b15nano22al1n03x5 a b c out0 vcc vssx m=1
* .PININFO a:I b:I c:I out0:O vcc:B vssx:B
Mqn3 n0 b vssx vssx nlp W=135n L=40n M=1 
Mqn0 n1 a n0 vssx nlp W=135n L=40n M=1 
Mqn1 out0 n1 vssx vssx nlp W=135n L=40n M=1 
Mqn2 out0 c vssx vssx nlp W=135n L=40n M=1 
Mqp3 n1 a vcc vcc plp W=90n L=40n M=1 
Mqp0 n1 b vcc vcc plp W=90n L=40n M=1 
Mqp1 out0 n1 n2 vcc plp W=180n L=40n M=1 
Mqp2 n2 c vcc vcc plp W=180n L=40n M=1 
.ENDS

* ***********************************************************************
*  Library Name: ln
*  Cell Name:    b15inv020al1n05x5
*  View Name:    schematic
* ***********************************************************************
.SUBCKT ringpll__b15inv020al1n05x5 a o1 vcc vssx m=1
* .PININFO a:I o1:O vcc:B vssx:B
Mqp1 o1 a vcc vcc plp W=180n L=40n M=1 
Mqn1 o1 a vssx vssx nlp W=225n L=40n M=1 
.ENDS

* ***********************************************************************
*  Library Name: nn
*  Cell Name:    b15nor002an1n06x5
*  View Name:    schematic
* ***********************************************************************
.SUBCKT ringpll__b15nor002an1n06x5 a b o1 vcc vssx m=1
* .PININFO a:I b:I o1:O vcc:B vssx:B
Mqp1 o1 a n1 vcc p W=360n L=40n M=1 
Mqp2 n1 b vcc vcc p W=360n L=40n M=1 
Mqn1 o1 a vssx vssx n W=270n L=40n M=1 
Mqn2 o1 b vssx vssx n W=270n L=40n M=1 
.ENDS

* ***********************************************************************
*  Library Name: ln
*  Cell Name:    b15nandp2al1n04x5
*  View Name:    schematic
* ***********************************************************************
.SUBCKT ringpll__b15nandp2al1n04x5 a b o1 vcc vssx m=1
* .PININFO a:I b:I o1:O vcc:B vssx:B
Mqp2 o1 b vcc vcc plp W=180n L=40n M=1 
Mqp1 o1 a vcc vcc plp W=180n L=40n M=1 
Mqn2 n1 b vssx vssx nlp W=180n L=40n M=1 
Mqn1 o1 a n1 vssx nlp W=180n L=40n M=1 
.ENDS

* ***********************************************************************
*  Library Name: nn
*  Cell Name:    b15aoi022an1n04x3
*  View Name:    schematic
* ***********************************************************************
.SUBCKT ringpll__b15aoi022an1n04x3 a b c d o1 vcc vssx m=1
* .PININFO a:I b:I c:I d:I o1:O vcc:B vssx:B
Mqn4 n3 d vssx vssx n W=180n L=40n M=1 
Mqn2 n2 b vssx vssx n W=180n L=40n M=1 
Mqn1 o1 a n2 vssx n W=180n L=40n M=1 
Mqn3 o1 c n3 vssx n W=180n L=40n M=1 
Mqp1 o1 a n1 vcc p W=90n L=40n M=1 
Mqp3 n1 c vcc vcc p W=90n L=40n M=1 
Mqp4 n1 d vcc vcc p W=90n L=40n M=1 
Mqp2 o1 b n1 vcc p W=90n L=40n M=1 
.ENDS

* ***********************************************************************
*  Library Name: ln
*  Cell Name:    b15aoi122al1n04x5
*  View Name:    schematic
* ***********************************************************************
.SUBCKT ringpll__b15aoi122al1n04x5 a b c d e o1 vcc vssx m=1
* .PININFO a:I b:I c:I d:I e:I o1:O vcc:B vssx:B
Mqp4 n2 b n1 vcc plp W=360n L=40n M=1 
Mqp3 n2 c n1 vcc plp W=360n L=40n M=1 
Mqp2 n1 d vcc vcc plp W=360n L=40n M=1 
Mqp1 n1 e vcc vcc plp W=360n L=40n M=1 
Mqp5 o1 a n2 vcc plp W=360n L=40n M=1 
Mqn2 n3 d vssx vssx nlp W=270n L=40n M=1 
Mqn1 o1 e n3 vssx nlp W=270n L=40n M=1 
Mqn5 o1 a vssx vssx nlp W=180n L=40n M=1 
Mqn4 n4 b vssx vssx nlp W=270n L=40n M=1 
Mqn3 o1 c n4 vssx nlp W=270n L=40n M=1 
.ENDS

* ***********************************************************************
*  Library Name: intel22legacy
*  Cell Name:    na2_pcell_174
*  View Name:    schematic
* ***********************************************************************
.SUBCKT ringpll__na2_pcell_174 a b o vccxx vssxx
* .PININFO a:I b:I o:O vccxx:B vssxx:B
Mqna o a n1 vssxx n W=225n L=40n M=1 
Mqnb n1 b vssxx vssxx n W=225n L=40n M=1 
Mqpb o b vccxx vccxx p W=180n L=40n M=1 
Mqpa o a vccxx vccxx p W=180n L=40n M=1 
.ENDS

* ***********************************************************************
*  Library Name: intel22legacy
*  Cell Name:    na2_pcell_173
*  View Name:    schematic
* ***********************************************************************
.SUBCKT ringpll__na2_pcell_173 a b o vccxx vssxx
* .PININFO a:I b:I o:O vccxx:B vssxx:B
Mqna o a n1 vssxx nlvt W=180n L=40n M=1 
Mqnb n1 b vssxx vssxx nlvt W=180n L=40n M=1 
Mqpb o b vccxx vccxx plvt W=135n L=40n M=1 
Mqpa o a vccxx vccxx plvt W=135n L=40n M=1 
.ENDS

* ***********************************************************************
*  Library Name: ln
*  Cell Name:    b15oai013al1n02x3
*  View Name:    schematic
* ***********************************************************************
.SUBCKT ringpll__b15oai013al1n02x3 a b c d o1 vcc vssx m=1
* .PININFO a:I b:I c:I d:I o1:O vcc:B vssx:B
Mqp2 o1 b n2 vcc plp W=90n L=40n M=1 
Mqp3 n2 c n3 vcc plp W=90n L=40n M=1 
Mqp4 n3 d vcc vcc plp W=90n L=40n M=1 
Mqp1 o1 a vcc vcc plp W=90n L=40n M=1 
Mqn2 n1 b vssx vssx nlp W=90n L=40n M=1 
Mqn3 n1 c vssx vssx nlp W=90n L=40n M=1 
Mqn4 n1 d vssx vssx nlp W=90n L=40n M=1 
Mqn1 o1 a n1 vssx nlp W=90n L=40n M=1 
.ENDS

* ***********************************************************************
*  Library Name: intel22legacy
*  Cell Name:    inv_pcell_172
*  View Name:    schematic
* ***********************************************************************
.SUBCKT ringpll__inv_pcell_172 a o vccxx vssxx
* .PININFO a:I o:O vccxx:B vssxx:B
Mqna o a vssxx vssxx nlvt W=360n L=40n M=6 
Mqpa o a vccxx vccxx plvt W=180n L=40n M=13 
.ENDS

* ***********************************************************************
*  Library Name: hn
*  Cell Name:    b15nona23ah1n16x5
*  View Name:    schematic
* ***********************************************************************
.SUBCKT ringpll__b15nona23ah1n16x5 a b c d out0 vcc vssx m=1
* .PININFO a:I b:I c:I d:I out0:O vcc:B vssx:B
Mqn4 n4 a vssx vssx nlvt W=270n L=40n M=1 
Mqn0 n4 b vssx vssx nlvt W=270n L=40n M=1 
Mqn1 out0 n4 n1 vssx nlvt W=720n L=40n M=1 
Mqn2 n1 c n2 vssx nlvt W=720n L=40n M=1 
Mqn3 n2 d vssx vssx nlvt W=720n L=40n M=1 
Mqp4 n4 a n3 vcc plvt W=360n L=40n M=1 
Mqp0 n3 b vcc vcc plvt W=360n L=40n M=1 
Mqp2 out0 c vcc vcc plvt W=540n L=40n M=1 
Mqp3 out0 d vcc vcc plvt W=540n L=40n M=1 
Mqp1 out0 n4 vcc vcc plvt W=540n L=40n M=1 
.ENDS

* ***********************************************************************
*  Library Name: nn
*  Cell Name:    b15nor004an1n02x7
*  View Name:    schematic
* ***********************************************************************
.SUBCKT ringpll__b15nor004an1n02x7 a b c d o1 vcc vssx m=1
* .PININFO a:I b:I c:I d:I o1:O vcc:B vssx:B
Mqn1 o1 a vssx vssx n W=90n L=40n M=1 
Mqn3 o1 c vssx vssx n W=90n L=40n M=1 
Mqn4 o1 d vssx vssx n W=90n L=40n M=1 
Mqn2 o1 b vssx vssx n W=90n L=40n M=1 
Mqp1 o1 a n1 vcc p W=180n L=40n M=1 
Mqp2 n1 b n2 vcc p W=180n L=40n M=1 
Mqp3 n2 c n3 vcc p W=180n L=40n M=1 
Mqp4 n3 d vcc vcc p W=180n L=40n M=1 
.ENDS

* ***********************************************************************
*  Library Name: intel22legacy
*  Cell Name:    na2_pcell_171
*  View Name:    schematic
* ***********************************************************************
.SUBCKT ringpll__na2_pcell_171 a b o vccxx vssxx
* .PININFO a:I b:I o:O vccxx:B vssxx:B
Mqna o a n1 vssxx n W=360n L=40n M=3 
Mqnb n1 b vssxx vssxx n W=360n L=40n M=3 
Mqpb o b vccxx vccxx p W=360n L=40n M=2 
Mqpa o a vccxx vccxx p W=360n L=40n M=2 
.ENDS

* ***********************************************************************
*  Library Name: intel22legacy
*  Cell Name:    na2_pcell_170
*  View Name:    schematic
* ***********************************************************************
.SUBCKT ringpll__na2_pcell_170 a b o vccxx vssxx
* .PININFO a:I b:I o:O vccxx:B vssxx:B
Mqna o a n1 vssxx n W=270n L=40n M=2 
Mqnb n1 b vssxx vssxx n W=270n L=40n M=2 
Mqpb o b vccxx vccxx p W=360n L=40n M=1 
Mqpa o a vccxx vccxx p W=360n L=40n M=1 
.ENDS

* ***********************************************************************
*  Library Name: intel22legacy
*  Cell Name:    inv_pcell_169
*  View Name:    schematic
* ***********************************************************************
.SUBCKT ringpll__inv_pcell_169 a o vccxx vssxx
* .PININFO a:I o:O vccxx:B vssxx:B
Mqna o a vssxx vssxx n W=90n L=40n M=1 
Mqpa o a vccxx vccxx p W=90n L=40n M=1 
.ENDS

* ***********************************************************************
*  Library Name: nn
*  Cell Name:    b15aoi012an1n02x5
*  View Name:    schematic
* ***********************************************************************
.SUBCKT ringpll__b15aoi012an1n02x5 a b c o1 vcc vssx m=1
* .PININFO a:I b:I c:I o1:O vcc:B vssx:B
Mqp3 n1 c vcc vcc p W=135n L=40n M=1 
Mqp2 n1 b vcc vcc p W=135n L=40n M=1 
Mqp1 o1 a n1 vcc p W=135n L=40n M=1 
Mqn3 n2 c vssx vssx n W=135n L=40n M=1 
Mqn2 o1 b n2 vssx n W=135n L=40n M=1 
Mqn1 o1 a vssx vssx n W=90n L=40n M=1 
.ENDS

* ***********************************************************************
*  Library Name: ln
*  Cell Name:    b15norp02al1n02x5
*  View Name:    schematic
* ***********************************************************************
.SUBCKT ringpll__b15norp02al1n02x5 a b o1 vcc vssx m=1
* .PININFO a:I b:I o1:O vcc:B vssx:B
Mqp1 o1 a n1 vcc plp W=90n L=40n M=1 
Mqp2 n1 b vcc vcc plp W=90n L=40n M=1 
Mqn1 o1 a vssx vssx nlp W=90n L=40n M=1 
Mqn2 o1 b vssx vssx nlp W=90n L=40n M=1 
.ENDS

* ***********************************************************************
*  Library Name: nn
*  Cell Name:    b15nandp2an1n04x5
*  View Name:    schematic
* ***********************************************************************
.SUBCKT ringpll__b15nandp2an1n04x5 a b o1 vcc vssx m=1
* .PININFO a:I b:I o1:O vcc:B vssx:B
Mqp2 o1 b vcc vcc p W=180n L=40n M=1 
Mqp1 o1 a vcc vcc p W=180n L=40n M=1 
Mqn2 n1 b vssx vssx n W=180n L=40n M=1 
Mqn1 o1 a n1 vssx n W=180n L=40n M=1 
.ENDS

* ***********************************************************************
*  Library Name: nn
*  Cell Name:    b15oai012an1n03x5
*  View Name:    schematic
* ***********************************************************************
.SUBCKT ringpll__b15oai012an1n03x5 a b c o1 vcc vssx m=1
* .PININFO a:I b:I c:I o1:O vcc:B vssx:B
Mqp3 n2 c vcc vcc p W=135n L=40n M=1 
Mqp1 o1 a vcc vcc p W=90n L=40n M=1 
Mqp2 o1 b n2 vcc p W=135n L=40n M=1 
Mqn1 o1 a n1 vssx n W=135n L=40n M=1 
Mqn2 n1 b vssx vssx n W=135n L=40n M=1 
Mqn3 n1 c vssx vssx n W=135n L=40n M=1 
.ENDS

* ***********************************************************************
*  Library Name: hn
*  Cell Name:    b15inv020ah1n03x5
*  View Name:    schematic
* ***********************************************************************
.SUBCKT ringpll__b15inv020ah1n03x5 a o1 vcc vssx m=1
* .PININFO a:I o1:O vcc:B vssx:B
Mqp1 o1 a vcc vcc plvt W=90n L=40n M=1 
Mqn1 o1 a vssx vssx nlvt W=135n L=40n M=1 
.ENDS

* ***********************************************************************
*  Library Name: hn
*  Cell Name:    b15norp02ah1n03x5
*  View Name:    schematic
* ***********************************************************************
.SUBCKT ringpll__b15norp02ah1n03x5 a b o1 vcc vssx m=1
* .PININFO a:I b:I o1:O vcc:B vssx:B
Mqp1 o1 a n1 vcc plvt W=135n L=40n M=1 
Mqp2 n1 b vcc vcc plvt W=135n L=40n M=1 
Mqn1 o1 a vssx vssx nlvt W=135n L=40n M=1 
Mqn2 o1 b vssx vssx nlvt W=135n L=40n M=1 
.ENDS

* ***********************************************************************
*  Library Name: intel22legacy
*  Cell Name:    na2_pcell_168
*  View Name:    schematic
* ***********************************************************************
.SUBCKT ringpll__na2_pcell_168 a b o vccxx vssxx
* .PININFO a:I b:I o:O vccxx:B vssxx:B
Mqna o a n1 vssxx n W=180n L=40n M=1 
Mqnb n1 b vssxx vssxx n W=180n L=40n M=1 
Mqpb o b vccxx vccxx p W=135n L=40n M=1 
Mqpa o a vccxx vccxx p W=135n L=40n M=1 
.ENDS

* ***********************************************************************
*  Library Name: intel22legacy
*  Cell Name:    no2_pcell_167
*  View Name:    schematic
* ***********************************************************************
.SUBCKT ringpll__no2_pcell_167 a b o vccxx vssxx
* .PININFO a:I b:I o:O vccxx:B vssxx:B
Mqna o a vssxx vssxx nlvt W=90n L=40n M=1 
Mqnb o b vssxx vssxx nlvt W=90n L=40n M=1 
Mqpb n1 b vccxx vccxx plvt W=90n L=40n M=1 
Mqpa o a n1 vccxx plvt W=90n L=40n M=1 
.ENDS

* ***********************************************************************
*  Library Name: intel22legacy
*  Cell Name:    no2_pcell_166
*  View Name:    schematic
* ***********************************************************************
.SUBCKT ringpll__no2_pcell_166 a b o vccxx vssxx
* .PININFO a:I b:I o:O vccxx:B vssxx:B
Mqna o a vssxx vssxx nlvt W=90n L=40n M=1 
Mqnb o b vssxx vssxx nlvt W=90n L=40n M=1 
Mqpb n1 b vccxx vccxx plvt W=135n L=40n M=1 
Mqpa o a n1 vccxx plvt W=135n L=40n M=1 
.ENDS

* ***********************************************************************
*  Library Name: ln
*  Cell Name:    b15oai122al1n02x5
*  View Name:    schematic
* ***********************************************************************
.SUBCKT ringpll__b15oai122al1n02x5 a b c d e o1 vcc vssx m=1
* .PININFO a:I b:I c:I d:I e:I o1:O vcc:B vssx:B
Mqp3 n3 c vcc vcc plp W=90n L=40n M=1 
Mqp1 o1 a vcc vcc plp W=90n L=40n M=1 
Mqp5 n4 e vcc vcc plp W=90n L=40n M=1 
Mqp4 o1 d n4 vcc plp W=90n L=40n M=1 
Mqp2 o1 b n3 vcc plp W=90n L=40n M=1 
Mqn5 n2 e vssx vssx nlp W=90n L=40n M=1 
Mqn2 n1 b n2 vssx nlp W=90n L=40n M=1 
Mqn4 n2 d vssx vssx nlp W=90n L=40n M=1 
Mqn3 n1 c n2 vssx nlp W=90n L=40n M=1 
Mqn1 o1 a n1 vssx nlp W=90n L=40n M=1 
.ENDS

* ***********************************************************************
*  Library Name: nn
*  Cell Name:    b15aoi012an1n02x3
*  View Name:    schematic
* ***********************************************************************
.SUBCKT ringpll__b15aoi012an1n02x3 a b c o1 vcc vssx m=1
* .PININFO a:I b:I c:I o1:O vcc:B vssx:B
Mqp3 n1 c vcc vcc p W=90n L=40n M=1 
Mqp2 n1 b vcc vcc p W=90n L=40n M=1 
Mqp1 o1 a n1 vcc p W=90n L=40n M=1 
Mqn3 n2 c vssx vssx n W=90n L=40n M=1 
Mqn2 o1 b n2 vssx n W=90n L=40n M=1 
Mqn1 o1 a vssx vssx n W=90n L=40n M=1 
.ENDS

* ***********************************************************************
*  Library Name: intel22legacy
*  Cell Name:    no3_pcell_165
*  View Name:    schematic
* ***********************************************************************
.SUBCKT ringpll__no3_pcell_165 a b c o vccxx vssxx
* .PININFO a:I b:I c:I o:O vccxx:B vssxx:B
Mqnc o c vssxx vssxx n W=135n L=40n M=1 
Mqnb o b vssxx vssxx n W=135n L=40n M=1 
Mqna o a vssxx vssxx n W=135n L=40n M=1 
Mqpc n1 c vccxx vccxx p W=180n L=40n M=1 
Mqpb n2 b n1 vccxx p W=180n L=40n M=1 
Mqpa o a n2 vccxx p W=180n L=40n M=1 
.ENDS

* ***********************************************************************
*  Library Name: intel22legacy
*  Cell Name:    no3_pcell_164
*  View Name:    schematic
* ***********************************************************************
.SUBCKT ringpll__no3_pcell_164 a b c o vccxx vssxx
* .PININFO a:I b:I c:I o:O vccxx:B vssxx:B
Mqnc o c vssxx vssxx nlvt W=90n L=40n M=1 
Mqnb o b vssxx vssxx nlvt W=90n L=40n M=1 
Mqna o a vssxx vssxx nlvt W=90n L=40n M=1 
Mqpc n1 c vccxx vccxx plvt W=135n L=40n M=1 
Mqpb n2 b n1 vccxx plvt W=135n L=40n M=1 
Mqpa o a n2 vccxx plvt W=135n L=40n M=1 
.ENDS

* ***********************************************************************
*  Library Name: intel22legacy
*  Cell Name:    na2_pcell_163
*  View Name:    schematic
* ***********************************************************************
.SUBCKT ringpll__na2_pcell_163 a b o vccxx vssxx
* .PININFO a:I b:I o:O vccxx:B vssxx:B
Mqna o a n1 vssxx nlvt W=360n L=40n M=2 
Mqnb n1 b vssxx vssxx nlvt W=360n L=40n M=2 
Mqpb o b vccxx vccxx plvt W=270n L=40n M=2 
Mqpa o a vccxx vccxx plvt W=270n L=40n M=2 
.ENDS

* ***********************************************************************
*  Library Name: nn
*  Cell Name:    b15aoi122an1n02x3
*  View Name:    schematic
* ***********************************************************************
.SUBCKT ringpll__b15aoi122an1n02x3 a b c d e o1 vcc vssx m=1
* .PININFO a:I b:I c:I d:I e:I o1:O vcc:B vssx:B
Mqn2 n3 d vssx vssx n W=90n L=40n M=1 
Mqn1 o1 e n3 vssx n W=90n L=40n M=1 
Mqn5 o1 a vssx vssx n W=90n L=40n M=1 
Mqn4 n4 b vssx vssx n W=90n L=40n M=1 
Mqn3 o1 c n4 vssx n W=90n L=40n M=1 
Mqp4 n2 b n1 vcc p W=90n L=40n M=1 
Mqp3 n2 c n1 vcc p W=90n L=40n M=1 
Mqp2 n1 d vcc vcc p W=90n L=40n M=1 
Mqp1 n1 e vcc vcc p W=90n L=40n M=1 
Mqp5 o1 a n2 vcc p W=90n L=40n M=1 
.ENDS

* ***********************************************************************
*  Library Name: intel22legacy
*  Cell Name:    td_pcell_162
*  View Name:    schematic
* ***********************************************************************
.SUBCKT ringpll__td_pcell_162 ck ckb d o vccxx vssxx
* .PININFO ck:I ckb:I d:I o:O vccxx:B vssxx:B
Mqnck o ck n2 vssxx n W=135n L=40n M=1 
Mqnd n2 d vssxx vssxx n W=135n L=40n M=1 
Mqpckb o ckb n1 vccxx p W=135n L=40n M=1 
Mqpd n1 d vccxx vccxx p W=135n L=40n M=1 
.ENDS

* ***********************************************************************
*  Library Name: intel22legacy
*  Cell Name:    xf_pcell_161
*  View Name:    schematic
* ***********************************************************************
.SUBCKT ringpll__xf_pcell_161 i o s sb vccxx vssxx
* .PININFO i:I s:I sb:I o:O vccxx:B vssxx:B
Mqns o s i vssxx n W=135n L=40n M=1 
Mqpsb o sb i vccxx p W=135n L=40n M=1 
.ENDS

* ***********************************************************************
*  Library Name: intel22legacy
*  Cell Name:    xf_pcell_160
*  View Name:    schematic
* ***********************************************************************
.SUBCKT ringpll__xf_pcell_160 i o s sb vccxx vssxx
* .PININFO i:I s:I sb:I o:O vccxx:B vssxx:B
Mqns o s i vssxx n W=180n L=40n M=1 
Mqpsb o sb i vccxx p W=180n L=40n M=1 
.ENDS

* ***********************************************************************
*  Library Name: intel22legacy
*  Cell Name:    inv_pcell_159
*  View Name:    schematic
* ***********************************************************************
.SUBCKT ringpll__inv_pcell_159 a o vccxx vssxx
* .PININFO a:I o:O vccxx:B vssxx:B
Mqna o a vssxx vssxx n W=270n L=40n M=1 
Mqpa o a vccxx vccxx p W=270n L=40n M=1 
.ENDS

* ***********************************************************************
*  Library Name: intel22legacy
*  Cell Name:    inv_pcell_158
*  View Name:    schematic
* ***********************************************************************
.SUBCKT ringpll__inv_pcell_158 a o vccxx vssxx
* .PININFO a:I o:O vccxx:B vssxx:B
Mqna o a vssxx vssxx n W=360n L=40n M=1 
Mqpa o a vccxx vccxx p W=360n L=40n M=1 
.ENDS

* ***********************************************************************
*  Library Name: nn
*  Cell Name:    b15norp02an1n04x5
*  View Name:    schematic
* ***********************************************************************
.SUBCKT ringpll__b15norp02an1n04x5 a b o1 vcc vssx m=1
* .PININFO a:I b:I o1:O vcc:B vssx:B
Mqp1 o1 a n1 vcc p W=180n L=40n M=1 
Mqp2 n1 b vcc vcc p W=180n L=40n M=1 
Mqn1 o1 a vssx vssx n W=180n L=40n M=1 
Mqn2 o1 b vssx vssx n W=180n L=40n M=1 
.ENDS

* ***********************************************************************
*  Library Name: nn
*  Cell Name:    b15norp02an1n03x5
*  View Name:    schematic
* ***********************************************************************
.SUBCKT ringpll__b15norp02an1n03x5 a b o1 vcc vssx m=1
* .PININFO a:I b:I o1:O vcc:B vssx:B
Mqp1 o1 a n1 vcc p W=135n L=40n M=1 
Mqp2 n1 b vcc vcc p W=135n L=40n M=1 
Mqn1 o1 a vssx vssx n W=135n L=40n M=1 
Mqn2 o1 b vssx vssx n W=135n L=40n M=1 
.ENDS

* ***********************************************************************
*  Library Name: hn
*  Cell Name:    b15norp02ah1n08x5
*  View Name:    schematic
* ***********************************************************************
.SUBCKT ringpll__b15norp02ah1n08x5 a b o1 vcc vssx m=1
* .PININFO a:I b:I o1:O vcc:B vssx:B
Mqp1 o1 a n1 vcc plvt W=360n L=40n M=1 
Mqp2 n1 b vcc vcc plvt W=360n L=40n M=1 
Mqn1 o1 a vssx vssx nlvt W=360n L=40n M=1 
Mqn2 o1 b vssx vssx nlvt W=360n L=40n M=1 
.ENDS

* ***********************************************************************
*  Library Name: ln
*  Cell Name:    b15nand04al1n02x5
*  View Name:    schematic
* ***********************************************************************
.SUBCKT ringpll__b15nand04al1n02x5 a b c d o1 vcc vssx m=1
* .PININFO a:I b:I c:I d:I o1:O vcc:B vssx:B
Mqp2 o1 b vcc vcc plp W=90n L=40n M=1 
Mqp3 o1 c vcc vcc plp W=90n L=40n M=1 
Mqp4 o1 d vcc vcc plp W=90n L=40n M=1 
Mqp1 o1 a vcc vcc plp W=90n L=40n M=1 
Mqn1 o1 a n1 vssx nlp W=90n L=40n M=1 
Mqn2 n1 b n2 vssx nlp W=90n L=40n M=1 
Mqn3 n2 c n3 vssx nlp W=90n L=40n M=1 
Mqn4 n3 d vssx vssx nlp W=90n L=40n M=1 
.ENDS

* ***********************************************************************
*  Library Name: ln
*  Cell Name:    b15aoi122al1n02x3
*  View Name:    schematic
* ***********************************************************************
.SUBCKT ringpll__b15aoi122al1n02x3 a b c d e o1 vcc vssx m=1
* .PININFO a:I b:I c:I d:I e:I o1:O vcc:B vssx:B
Mqp4 n2 b n1 vcc plp W=90n L=40n M=1 
Mqp3 n2 c n1 vcc plp W=90n L=40n M=1 
Mqp2 n1 d vcc vcc plp W=90n L=40n M=1 
Mqp1 n1 e vcc vcc plp W=90n L=40n M=1 
Mqp5 o1 a n2 vcc plp W=90n L=40n M=1 
Mqn2 n3 d vssx vssx nlp W=90n L=40n M=1 
Mqn1 o1 e n3 vssx nlp W=90n L=40n M=1 