*SPEF "IEEE 1481-1999"
*DESIGN "gcd"
*DATE "Wed Nov  9 18:21:09 2022"
*VENDOR "Synopsys Inc."
*PROGRAM "StarRC"
*VERSION "T-2022.03-SP3"
*DESIGN_FLOW "PIN_CAP NONE" "NAME_SCOPE LOCAL"
*DIVIDER /
*DELIMITER :
*BUS_DELIMITER []
*T_UNIT 1.0 NS
*C_UNIT 1.0 FF
*R_UNIT 1.0 OHM
*L_UNIT 1.0 HENRY

// COMMENTS

// CORNER_NAME 
// OPERATING_TEMPERATURE 25
// GLOBAL_TEMPERATURE 25
// TCAD_GRD_FILE /afs/eecs.umich.edu/kits/Intel/P1222.4/2022.08/pdk224_r0.9HP3/extraction/starrc/techfiles/m11_1x_3xa_1xb_1xc_2yb_2ga_mim2_1gb__bumpp/tttt.nxtgrd
//   TCAD_TIME_STAMP Thu Dec 16 14:06:03 2021
//   TCADGRD_VERSION 85
// galaxy_comments_begin
//   local_nodeid
// galaxy_comments_end

// *VIA_COVERAGE_CODES

// 	*index	FF	FQ	FS	FP	QF	QQ	QS	QP	SF	SQ	SS	SP	PF	PQ	PS	PP	X_by_Y
// 	*	"FQ" stands for Full landing and Quarter coverage
// 	*0	0	0	0	0	0	0	0	0	0	0	0	0	0	0	0	0	
// 	*1	0	0	0	0	0	0	0	0	0	0	0	0	0	0	0	1	1x1
// 	*2	0	0	0	0	0	0	0	0	0	0	0	0	0	0	1	0	1x1
// 	*3	0	0	0	0	0	0	0	0	0	0	0	0	0	1	0	0	1x1
// 	*4	0	0	0	0	0	0	0	0	0	0	0	0	1	0	0	0	1x1
// 	*5	0	0	0	0	0	0	0	0	0	0	0	1	0	0	0	0	1x1
// 	*6	0	0	0	0	0	0	0	0	0	0	1	0	0	0	0	0	1x1
// 	*7	0	0	0	0	0	0	0	0	0	1	0	0	0	0	0	0	1x1
// 	*8	0	0	0	0	0	0	0	0	1	0	0	0	0	0	0	0	1x1
// 	*9	0	0	0	0	0	0	0	1	0	0	0	0	0	0	0	0	1x1
// 	*10	0	0	0	0	0	0	1	0	0	0	0	0	0	0	0	0	1x1
// 	*11	0	0	0	0	0	1	0	0	0	0	0	0	0	0	0	0	1x1
// 	*12	0	0	0	0	1	0	0	0	0	0	0	0	0	0	0	0	1x1
// 	*13	0	0	0	1	0	0	0	0	0	0	0	0	0	0	0	0	1x1
// 	*14	0	0	1	0	0	0	0	0	0	0	0	0	0	0	0	0	1x1
// 	*15	0	1	0	0	0	0	0	0	0	0	0	0	0	0	0	0	1x1
// 	*16	1	0	0	0	0	0	0	0	0	0	0	0	0	0	0	0	1x1

*PORTS

clk I
req_msg[0] I
req_msg[10] I
req_msg[11] I
req_msg[12] I
req_msg[13] I
req_msg[14] I
req_msg[15] I
req_msg[16] I
req_msg[17] I
req_msg[18] I
req_msg[19] I
req_msg[1] I
req_msg[20] I
req_msg[21] I
req_msg[22] I
req_msg[23] I
req_msg[24] I
req_msg[25] I
req_msg[26] I
req_msg[27] I
req_msg[28] I
req_msg[29] I
req_msg[2] I
req_msg[30] I
req_msg[31] I
req_msg[3] I
req_msg[4] I
req_msg[5] I
req_msg[6] I
req_msg[7] I
req_msg[8] I
req_msg[9] I
req_rdy O
req_val I
reset I
resp_msg[0] O
resp_msg[10] O
resp_msg[11] O
resp_msg[12] O
resp_msg[13] O
resp_msg[14] O
resp_msg[15] O
resp_msg[1] O
resp_msg[2] O
resp_msg[3] O
resp_msg[4] O
resp_msg[5] O
resp_msg[6] O
resp_msg[7] O
resp_msg[8] O
resp_msg[9] O
resp_rdy I
resp_val O

// *LAYER_MAP

// *0 SUBSTRATE
// *1 c4    ITF=c4
// *2 c4emib    ITF=c4
// *3 gmb    ITF=gmb
// *4 CE2    ITF=ce2
// *5 CE1    ITF=ce1
// *6 gm0    ITF=gm0
// *7 gmz    ITF=gmz
// *8 m8    ITF=m8
// *9 m7    ITF=m7
// *10 m6    ITF=m6
// *11 m5    ITF=m5
// *12 m4    ITF=m4
// *13 m3    ITF=m3
// *14 m2    ITF=m2
// *15 m1    ITF=m1
// *16 v1    ITF=via1
// *17 v2    ITF=via2
// *18 v3    ITF=via3
// *19 v4    ITF=via4
// *20 v5    ITF=via5
// *21 v6    ITF=via6
// *22 v7    ITF=via7
// *23 v8    ITF=via8
// *24 vmz    ITF=viamz
// *25 gv0    ITF=gv0
// *26 gv1    ITF=gv1

*D_NET clk 2.06887

*CONN
*P clk I *C 25.7610 2.4300
*I clkbuf_0_clk:clk I *C 16.9560 9.0900 *D b15cbf000an1n16x5
*N clk:2 *C 17.5000 9.0900
*N clk:3 *C 22.5500 9.0900
*N clk:4 *C 22.4500 2.4300
*N clk:5 *C 17.5500 8.9640
*N clk:6 *C 22.5000 2.3960
*N clk:7 *C 22.5000 9.1240
*N clk:8 *C 16.9040 9.0900
*N clk:9 *C 16.9560 9.0900
*N clk:10 *C 16.9560 9.0900
*N clk:11 *C 17.5500 9.0900
*N clk:12 *C 17.5500 9.0900
*N clk:13 *C 17.5500 9.0900
*N clk:14 *C 22.5000 2.4300
*N clk:15 *C 22.5000 2.4300
*N clk:16 *C 22.5000 9.0900
*N clk:17 *C 22.5000 9.0900
*N clk:18 *C 25.9210 2.4300
*N clk:19 *C 17.5500 9.1400
*N clk:20 *C 17.5840 9.0900
*N clk:21 *C 16.9560 9.2920

*CAP
1 clk req_msg[4] 0.00274742
2 clk req_msg[4]:3 9.65911e-05
3 clk:4 req_msg[4]:2 0.00212417
4 clk:4 req_msg[4]:3 9.65911e-05
5 clk _007_:2 0.00594646
6 clk:4 _007_:2 0.00594646
7 clk:6 _026_:2 0.00104589
8 clk:6 _026_:3 0.00139358
9 clk:6 _026_:4 0.000453027
10 clk:7 _026_:2 0.00104589
11 clk:7 _026_:3 0.00139358
12 clk:7 _026_:4 0.000453027
13 clk _051_:21 0.00281816
14 clk _051_:40 0.00035283
15 clk _051_:41 0.000406202
16 clk:4 _051_:21 0.00281816
17 clk:4 _051_:39 0.00035283
18 clk:4 _051_:41 0.000406202
19 clk:6 _051_:21 0.00546309
20 clk:6 _051_:39 0.104099
21 clk:6 _051_:42 0.0188288
22 clk:6 _051_:68 0.000436168
23 clk:6 _051_:73 0.00136968
24 clk:6 _051_:74 0.00190508
25 clk:6 _051_:75 0.00435903
26 clk:6 _051_:76 0.00503689
27 clk:6 _051_:77 0.00135083
28 clk:6 _051_:78 0.000184706
29 clk:7 _051_:21 0.00546309
30 clk:7 _051_:40 0.104099
31 clk:7 _051_:43 0.0188288
32 clk:7 _051_:69 0.000436168
33 clk:7 _051_:73 0.00136968
34 clk:7 _051_:74 0.00190508
35 clk:7 _051_:75 0.00435903
36 clk:7 _051_:76 0.00503689
37 clk:7 _051_:77 0.00135083
38 clk:7 _051_:78 0.000184706
39 clk:2 _087_:5 0.00424857
40 clk:3 _087_:5 0.00424857
41 clk:2 _089_:3 0.000618013
42 clk:2 _089_:4 0.00338248
43 clk:2 _089_:5 0.000882103
44 clk:2 _089_:7 0.00460803
45 clk:3 _089_:3 0.000618013
46 clk:3 _089_:4 0.00338248
47 clk:3 _089_:5 0.000882103
48 clk:3 _089_:8 0.00460803
49 clk:5 _089_:3 0.00414785
50 clk:5 _094_:4 9.21816e-07
51 clk:5 _094_:5 9.21816e-07
52 clk:8 _094_:4 0.00406494
53 clk:8 _094_:5 0.00406494
54 clk:8 _119_:3 0.00743257
55 clk:2 _209_:63 0.00540762
56 clk:2 _209_:67 0.00386011
57 clk:3 _209_:64 0.00540762
58 clk:3 _209_:67 0.00386011
59 clk:6 _209_:120 0.00399829
60 clk:7 _209_:121 0.00399829
61 clk:6 _213_:21 0.00116706
62 clk:6 _213_:40 0.07858
63 clk:6 _213_:41 0.032034
64 clk:6 _213_:66 0.00548996
65 clk:6 _213_:67 0.00326811
66 clk:6 _213_:68 0.00272911
67 clk:7 _213_:21 0.00116706
68 clk:7 _213_:40 0.07858
69 clk:7 _213_:41 0.032034
70 clk:7 _213_:66 0.00548996
71 clk:7 _213_:67 0.00326811
72 clk:7 _213_:68 0.00272911
73 clk:6 _224_:2 0.000851315
74 clk:7 _224_:2 0.000851315
75 clk:6 _225_:2 0.0365027
76 clk:6 _225_:3 0.000869351
77 clk:6 _225_:4 0.000441223
78 clk:7 _225_:2 0.0365027
79 clk:7 _225_:3 0.000869351
80 clk:7 _225_:4 0.000441223
81 clk:6 _226_:2 0.010183
82 clk:6 _226_:3 0.000511118
83 clk:6 _226_:4 0.000641594
84 clk:7 _226_:2 0.010183
85 clk:7 _226_:3 0.000511118
86 clk:7 _226_:4 0.000641594
87 clk:6 _231_:2 0.00114672
88 clk:6 _231_:3 0.00441769
89 clk:6 _231_:4 0.000670802
90 clk:7 _231_:2 0.00114672
91 clk:7 _231_:3 0.00441769
92 clk:7 _231_:4 0.000670802
93 clk:6 _232_:2 0.0199783
94 clk:6 _232_:3 0.000667063
95 clk:6 _232_:4 0.00095203
96 clk:7 _232_:2 0.0199783
97 clk:7 _232_:3 0.000667063
98 clk:7 _232_:4 0.00095203
99 clk:2 _277_:2 0.00177933
100 clk:2 _277_:4 0.00332201
101 clk:3 _277_:2 0.00177933
102 clk:3 _277_:4 0.00332201
103 clk:2 _278_:2 0.000877303
104 clk:3 _278_:2 0.000877303
105 clk:6 _278_:2 0.00385327
106 clk:7 _278_:2 0.00385327
107 clk:6 _279_:2 0.00126658
108 clk:6 _279_:3 0.00110626
109 clk:7 _279_:2 0.00126658
110 clk:7 _279_:3 0.00110626
111 clk:2 clknet_0_clk:10 0.00356847
112 clk:2 clknet_0_clk:15 0.00402503
113 clk:3 clknet_0_clk:11 0.00356847
114 clk:3 clknet_0_clk:15 0.00402503
115 clk:5 clknet_0_clk:15 0.00146676
116 clk:8 clknet_0_clk:9 0.00419237
117 clk:8 clknet_0_clk:14 0.0053576
118 clk:8 clknet_0_clk:15 0.038199
119 clk clknet_2_2__leaf_clk:11 0.00770858
120 clk clknet_2_2__leaf_clk:19 0.00884095
121 clk:4 clknet_2_2__leaf_clk:10 0.00770858
122 clk:4 clknet_2_2__leaf_clk:19 0.00884095
123 clk:6 clknet_2_2__leaf_clk:18 0.00296732
124 clk:7 clknet_2_2__leaf_clk:18 0.00296732
125 clk dpath\.a_lt_b\$in1[4]:10 0.00454151
126 clk dpath\.a_lt_b\$in1[4]:18 0.000359039
127 clk:4 dpath\.a_lt_b\$in1[4]:10 0.00454151
128 clk:4 dpath\.a_lt_b\$in1[4]:17 0.000359039
129 clk:6 dpath\.a_lt_b\$in1[4]:10 0.0187253
130 clk:6 dpath\.a_lt_b\$in1[4]:14 0.00217465
131 clk:7 dpath\.a_lt_b\$in1[4]:10 0.0187253
132 clk:7 dpath\.a_lt_b\$in1[4]:15 0.00217465
133 clk:2 dpath\.a_lt_b\$in1[7]:7 0.00146499
134 clk:2 dpath\.a_lt_b\$in1[7]:8 0.00884586
135 clk:2 dpath\.a_lt_b\$in1[7]:9 0.0057028
136 clk:2 dpath\.a_lt_b\$in1[7]:10 0.00240306
137 clk:2 dpath\.a_lt_b\$in1[7]:16 0.00169641
138 clk:2 dpath\.a_lt_b\$in1[7]:17 0.00117848
139 clk:3 dpath\.a_lt_b\$in1[7]:7 0.00146499
140 clk:3 dpath\.a_lt_b\$in1[7]:8 0.00884586
141 clk:3 dpath\.a_lt_b\$in1[7]:9 0.0057028
142 clk:3 dpath\.a_lt_b\$in1[7]:11 0.00240306
143 clk:3 dpath\.a_lt_b\$in1[7]:16 0.00169641
144 clk:3 dpath\.a_lt_b\$in1[7]:17 0.00117848
145 clk:6 dpath\.a_lt_b\$in1[7]:10 0.0934977
146 clk:6 dpath\.a_lt_b\$in1[7]:17 0.000851597
147 clk:6 dpath\.a_lt_b\$in1[7]:18 0.00130254
148 clk:6 dpath\.a_lt_b\$in1[7]:19 0.000659671
149 clk:7 dpath\.a_lt_b\$in1[7]:11 0.0934977
150 clk:7 dpath\.a_lt_b\$in1[7]:17 0.000851597
151 clk:7 dpath\.a_lt_b\$in1[7]:18 0.00130254
152 clk:7 dpath\.a_lt_b\$in1[7]:19 0.000659671
153 clk:8 dpath\.a_lt_b\$in1[7]:14 6.99575e-05
154 clk:6 net27:2 0.001296
155 clk:7 net27:2 0.001296
156 clk 0.106482
157 clk:2 0.21401
158 clk:3 0.21401
159 clk:4 0.0929278
160 clk:5 0.0181349
161 clk:6 0.0839721
162 clk:7 0.0839721
163 clk:8 0.0461609
164 clk:21 0.0

*RES
1 clk clk:15 37.5561 //  $l=3.2610 $w=0.0440 $lvl=12
2 clk clk:18 1.84417 //  $l=0.1600 $w=0.0440 $lvl=12
3 clkbuf_0_clk:clk clk:10 12.9046 //  $vc=8 $savl=1 $savc=2 $cover_dir=0 $a=0.00264000 $lvl=16
4 clkbuf_0_clk:clk clk:9 0.001 //  $l=0.0000 $w=10.0000 $lvl=15
5 clkbuf_0_clk:clk clk:21 2.09359 //  $l=0.2020 $w=0.0680 $lvl=15
6 clk:2 clk:13 0.56539 //  $l=0.0500 $w=0.0440 $lvl=12
7 clk:3 clk:17 0.56539 //  $l=0.0500 $w=0.0440 $lvl=12
8 clk:4 clk:15 0.570807 //  $l=0.0500 $w=0.0440 $lvl=12
9 clk:5 clk:12 1.43921 //  $l=0.1260 $w=0.0440 $lvl=13
10 clk:6 clk:14 0.433608 //  $l=0.0340 $w=0.0440 $lvl=13
11 clk:7 clk:16 0.404268 //  $l=0.0340 $w=0.0440 $lvl=13
12 clk:8 clk:10 0.598558 //  $l=0.0520 $w=0.0440 $lvl=14
13 clk:10 clk:11 7.46157 //  $l=0.5940 $w=0.0440 $lvl=14
14 clk:11 clk:20 0.426841 //  $l=0.0340 $w=0.0440 $lvl=14
15 clk:11 clk:12 13.0685 //  $vc=8 $savl=0 $savc=2 $cover_dir=1 $a=0.00255200 $lvl=17
16 clk:12 clk:19 0.571899 //  $l=0.0500 $w=0.0440 $lvl=13
17 clk:12 clk:13 13.0685 //  $vc=8 $savl=0 $savc=2 $cover_dir=0 $a=0.00255200 $lvl=18
18 clk:13 clk:17 55.9736 //  $l=4.9500 $w=0.0440 $lvl=12
19 clk:14 clk:16 89.5892 //  $l=6.6600 $w=0.0440 $lvl=13
20 clk:14 clk:15 13.0685 //  $vc=8 $savl=0 $savc=2 $cover_dir=0 $a=0.00255200 $lvl=18
21 clk:16 clk:17 13.0685 //  $vc=8 $savl=0 $savc=2 $cover_dir=0 $a=0.00255200 $lvl=18
*END

*D_NET req_msg[0] 0.171854

*CONN
*P req_msg[0] I *C 0.1600 9.2700
*I input1:a I *C 1.5120 8.5500 *D b15bfn000ar1n02x5
*N req_msg[0]:2 *C 1.4900 9.2700
*N req_msg[0]:3 *C 1.4400 8.5000
*N req_msg[0]:4 *C 1.4060 8.5500
*N req_msg[0]:5 *C 1.5120 8.5500
*N req_msg[0]:6 *C 1.5120 8.5500
*N req_msg[0]:7 *C 1.4400 8.5500
*N req_msg[0]:8 *C 1.4400 8.5500
*N req_msg[0]:9 *C 1.4400 9.2700
*N req_msg[0]:10 *C 1.4400 9.2700
*N req_msg[0]:11 *C 0.0000 9.2700
*N req_msg[0]:12 *C 1.4400 9.3040
*N req_msg[0]:13 *C 1.5660 8.5500
*N req_msg[0]:14 *C 1.5120 8.3480

*CAP
1 req_msg[0] resp_msg[0] 0.00146426
2 req_msg[0]:2 resp_msg[0] 0.00489683
3 req_msg[0]:2 resp_msg[0]:2 0.00489683
4 req_msg[0]:3 resp_msg[0] 0.000544905
5 req_msg[0]:3 resp_msg[0]:2 0.000544905
6 req_msg[0]:3 resp_msg[0]:3 0.000158402
7 req_msg[0] resp_msg[1] 0.00120156
8 req_msg[0]:2 resp_msg[1] 0.00387456
9 req_msg[0]:2 resp_msg[1]:2 0.00387456
10 req_msg[0]:3 resp_msg[1] 0.000223021
11 req_msg[0]:3 resp_msg[1]:2 0.000223021
12 req_msg[0]:3 net1:3 0.000752977
13 req_msg[0]:3 net1:4 0.000752977
14 req_msg[0]:4 net1:3 0.00189572
15 req_msg[0]:4 net1:4 0.00189572
16 req_msg[0]:2 net36:47 0.00048813
17 req_msg[0]:3 net36:47 0.00264977
18 req_msg[0]:3 net36:95 0.000232964
19 req_msg[0]:3 net37:4 0.000793192
20 req_msg[0]:3 net37:7 0.000474266
21 req_msg[0]:4 net37:4 0.000396359
22 req_msg[0]:4 net37:7 0.000620253
23 req_msg[0] 0.0118105
24 req_msg[0]:2 0.0623243
25 req_msg[0]:3 0.0496611
26 req_msg[0]:4 0.0152029
27 req_msg[0]:14 0.0

*RES
1 req_msg[0] req_msg[0]:11 1.84417 //  $l=0.1600 $w=0.0440 $lvl=12
2 req_msg[0] req_msg[0]:10 14.7533 //  $l=1.2800 $w=0.0440 $lvl=12
3 input1:a req_msg[0]:6 12.9046 //  $vc=8 $savl=1 $savc=2 $cover_dir=0 $a=0.00264000 $lvl=16
4 input1:a req_msg[0]:5 0.001 //  $l=0.0000 $w=10.0000 $lvl=15
5 input1:a req_msg[0]:14 2.16074 //  $l=0.2020 $w=0.0680 $lvl=15
6 req_msg[0]:2 req_msg[0]:10 0.576302 //  $l=0.0500 $w=0.0440 $lvl=12
7 req_msg[0]:3 req_msg[0]:8 0.575843 //  $l=0.0500 $w=0.0440 $lvl=13
8 req_msg[0]:4 req_msg[0]:7 0.391365 //  $l=0.0340 $w=0.0440 $lvl=14
9 req_msg[0]:6 req_msg[0]:13 0.631988 //  $l=0.0540 $w=0.0440 $lvl=14
10 req_msg[0]:6 req_msg[0]:7 0.828773 //  $l=0.0720 $w=0.0440 $lvl=14
11 req_msg[0]:7 req_msg[0]:8 13.0685 //  $vc=8 $savl=0 $savc=2 $cover_dir=1 $a=0.00255200 $lvl=17
12 req_msg[0]:8 req_msg[0]:9 8.2867 //  $l=0.7200 $w=0.0440 $lvl=13
13 req_msg[0]:9 req_msg[0]:12 0.391053 //  $l=0.0340 $w=0.0440 $lvl=13
14 req_msg[0]:9 req_msg[0]:10 13.0685 //  $vc=8 $savl=0 $savc=2 $cover_dir=0 $a=0.00255200 $lvl=18
*END

*D_NET req_msg[10] 0.218711

*CONN
*P req_msg[10] I *C 4.4100 25.7610
*I input2:a I *C 5.1840 24.3900 *D b15bfn000al1n02x5
*N req_msg[10]:2 *C 4.4100 24.3400
*N req_msg[10]:3 *C 4.3760 24.3900
*N req_msg[10]:4 *C 5.1840 24.3900
*N req_msg[10]:5 *C 5.1840 24.3900
*N req_msg[10]:6 *C 4.4100 24.3900
*N req_msg[10]:7 *C 4.4100 24.3900
*N req_msg[10]:8 *C 4.4100 25.9210
*N req_msg[10]:9 *C 5.2360 24.3900
*N req_msg[10]:10 *C 5.1840 24.1880

*CAP
1 req_msg[10] req_msg[26] 0.00051935
2 req_msg[10]:2 req_msg[26]:2 0.00283121
3 req_msg[10]:3 req_msg[26]:3 0.000144351
4 req_msg[10] 0.0140892
5 req_msg[10]:2 0.100562
6 req_msg[10]:3 0.100565
7 req_msg[10]:10 0.0

*RES
1 req_msg[10] req_msg[10]:7 15.8084 //  $l=1.3710 $w=0.0440 $lvl=13
2 req_msg[10] req_msg[10]:8 1.84417 //  $l=0.1600 $w=0.0440 $lvl=13
3 input2:a req_msg[10]:5 12.9046 //  $vc=8 $savl=1 $savc=2 $cover_dir=0 $a=0.00264000 $lvl=16
4 input2:a req_msg[10]:4 0.001 //  $l=0.0000 $w=10.0000 $lvl=15
5 input2:a req_msg[10]:10 2.16074 //  $l=0.2020 $w=0.0680 $lvl=15
6 req_msg[10]:2 req_msg[10]:7 0.577428 //  $l=0.0500 $w=0.0440 $lvl=13
7 req_msg[10]:3 req_msg[10]:6 0.398313 //  $l=0.0340 $w=0.0440 $lvl=14
8 req_msg[10]:5 req_msg[10]:9 0.601746 //  $l=0.0520 $w=0.0440 $lvl=14
9 req_msg[10]:5 req_msg[10]:6 9.06748 //  $l=0.7740 $w=0.0440 $lvl=14
10 req_msg[10]:6 req_msg[10]:7 13.0685 //  $vc=8 $savl=0 $savc=2 $cover_dir=1 $a=0.00255200 $lvl=17
*END

*D_NET req_msg[11] 0.188569

*CONN
*P req_msg[11] I *C 9.0900 25.7610
*I input3:a I *C 9.5040 24.3900 *D b15bfn000al1n02x5
*N req_msg[11]:2 *C 9.0900 24.3400
*N req_msg[11]:3 *C 9.0560 24.3900
*N req_msg[11]:4 *C 9.5040 24.3900
*N req_msg[11]:5 *C 9.5040 24.3900
*N req_msg[11]:6 *C 9.0900 24.3900
*N req_msg[11]:7 *C 9.0900 24.3900
*N req_msg[11]:8 *C 9.0900 25.9210
*N req_msg[11]:9 *C 9.5560 24.3900
*N req_msg[11]:10 *C 9.5040 24.1880

*CAP
1 req_msg[11] resp_msg[10] 0.00294
2 req_msg[11]:2 resp_msg[10]:2 0.018591
3 req_msg[11]:2 resp_msg[10]:3 0.000143993
4 req_msg[11]:3 resp_msg[10]:2 0.000438204
5 req_msg[11] resp_msg[11] 0.00132349
6 req_msg[11]:2 resp_msg[11]:2 0.00765184
7 req_msg[11]:3 resp_msg[11]:2 0.000315323
8 req_msg[11] 0.0109956
9 req_msg[11]:2 0.0775488
10 req_msg[11]:3 0.0686203
11 req_msg[11]:10 0.0

*RES
1 req_msg[11] req_msg[11]:7 15.6607 //  $l=1.3710 $w=0.0440 $lvl=13
2 req_msg[11] req_msg[11]:8 1.8446 //  $l=0.1600 $w=0.0440 $lvl=13
3 input3:a req_msg[11]:5 12.9046 //  $vc=8 $savl=1 $savc=2 $cover_dir=0 $a=0.00264000 $lvl=16
4 input3:a req_msg[11]:4 0.001 //  $l=0.0000 $w=10.0000 $lvl=15
5 input3:a req_msg[11]:10 2.16074 //  $l=0.2020 $w=0.0680 $lvl=15
6 req_msg[11]:2 req_msg[11]:7 0.550126 //  $l=0.0500 $w=0.0440 $lvl=13
7 req_msg[11]:3 req_msg[11]:6 0.398313 //  $l=0.0340 $w=0.0440 $lvl=14
8 req_msg[11]:5 req_msg[11]:9 0.610537 //  $l=0.0520 $w=0.0440 $lvl=14
9 req_msg[11]:5 req_msg[11]:6 4.85005 //  $l=0.4140 $w=0.0440 $lvl=14
10 req_msg[11]:6 req_msg[11]:7 13.0685 //  $vc=8 $savl=0 $savc=2 $cover_dir=1 $a=0.00255200 $lvl=17
*END

*D_NET req_msg[12] 0.287851

*CONN
*P req_msg[12] I *C 16.2900 25.7610
*I input4:a I *C 16.2000 23.6700 *D b15bfn000al1n02x5
*N req_msg[12]:2 *C 16.2900 24.1600
*N req_msg[12]:3 *C 16.4700 23.6200
*N req_msg[12]:4 *C 16.1480 23.6700
*N req_msg[12]:5 *C 16.2560 24.2100
*N req_msg[12]:6 *C 16.2000 23.6700
*N req_msg[12]:7 *C 16.2000 23.6700
*N req_msg[12]:8 *C 16.2900 24.2100
*N req_msg[12]:9 *C 16.2900 24.2100
*N req_msg[12]:10 *C 16.4700 23.6700
*N req_msg[12]:11 *C 16.4700 23.6700
*N req_msg[12]:12 *C 16.4700 24.2100
*N req_msg[12]:13 *C 16.4700 24.2100
*N req_msg[12]:14 *C 16.2900 25.9210
*N req_msg[12]:15 *C 16.4700 24.2600
*N req_msg[12]:16 *C 16.5040 23.6700
*N req_msg[12]:17 *C 16.5040 24.2100
*N req_msg[12]:18 *C 16.2000 23.4680

*CAP
1 req_msg[12] req_msg[28] 0.000764759
2 req_msg[12]:2 req_msg[28]:2 0.00306275
3 req_msg[12]:2 req_msg[28]:3 0.00173688
4 req_msg[12]:2 req_msg[28]:5 0.000193551
5 req_msg[12]:4 req_msg[28]:4 6.85763e-05
6 req_msg[12] resp_msg[13] 0.00051935
7 req_msg[12]:2 resp_msg[13]:2 0.00305811
8 req_msg[12]:3 _291_:8 0.000728748
9 req_msg[12]:3 _291_:9 0.000728748
10 req_msg[12]:4 _291_:8 0.0102605
11 req_msg[12]:4 _291_:9 0.0102605
12 req_msg[12] 0.0135326
13 req_msg[12]:2 0.109053
14 req_msg[12]:3 0.0874532
15 req_msg[12]:4 0.0268286
16 req_msg[12]:5 0.019601
17 req_msg[12]:18 0.0

*RES
1 req_msg[12] req_msg[12]:9 17.9007 //  $l=1.5510 $w=0.0440 $lvl=13
2 req_msg[12] req_msg[12]:14 1.84417 //  $l=0.1600 $w=0.0440 $lvl=13
3 input4:a req_msg[12]:7 12.9046 //  $vc=8 $savl=1 $savc=2 $cover_dir=0 $a=0.00264000 $lvl=16
4 input4:a req_msg[12]:6 0.001 //  $l=0.0000 $w=10.0000 $lvl=15
5 input4:a req_msg[12]:18 2.16074 //  $l=0.2020 $w=0.0680 $lvl=15
6 req_msg[12]:2 req_msg[12]:9 0.584499 //  $l=0.0500 $w=0.0440 $lvl=13
7 req_msg[12]:3 req_msg[12]:11 0.571899 //  $l=0.0500 $w=0.0440 $lvl=13
8 req_msg[12]:4 req_msg[12]:7 0.652816 //  $l=0.0520 $w=0.0440 $lvl=14
9 req_msg[12]:5 req_msg[12]:8 0.391365 //  $l=0.0340 $w=0.0440 $lvl=14
10 req_msg[12]:7 req_msg[12]:10 3.38962 //  $l=0.2700 $w=0.0440 $lvl=14
11 req_msg[12]:8 req_msg[12]:12 2.07193 //  $l=0.1800 $w=0.0440 $lvl=14
12 req_msg[12]:8 req_msg[12]:9 13.0685 //  $vc=8 $savl=0 $savc=2 $cover_dir=1 $a=0.00255200 $lvl=17
13 req_msg[12]:10 req_msg[12]:16 0.426841 //  $l=0.0340 $w=0.0440 $lvl=14
14 req_msg[12]:10 req_msg[12]:11 13.0685 //  $vc=8 $savl=0 $savc=2 $cover_dir=1 $a=0.00255200 $lvl=17
15 req_msg[12]:11 req_msg[12]:13 6.23125 //  $l=0.5400 $w=0.0440 $lvl=13
16 req_msg[12]:12 req_msg[12]:17 0.391365 //  $l=0.0340 $w=0.0440 $lvl=14
17 req_msg[12]:12 req_msg[12]:13 13.0685 //  $vc=8 $savl=0 $savc=2 $cover_dir=1 $a=0.00255200 $lvl=17
18 req_msg[12]:13 req_msg[12]:15 0.591243 //  $l=0.0500 $w=0.0440 $lvl=13
*END

*D_NET req_msg[13] 0.134539

*CONN
*P req_msg[13] I *C 21.5100 25.7610
*I input5:a I *C 21.4920 24.3900 *D b15bfn000ar1n02x5
*N req_msg[13]:2 *C 21.5100 24.3400
*N req_msg[13]:3 *C 21.3840 24.3900
*N req_msg[13]:4 *C 21.4920 24.3900
*N req_msg[13]:5 *C 21.4920 24.3900
*N req_msg[13]:6 *C 21.5100 24.3900
*N req_msg[13]:7 *C 21.5100 24.3900
*N req_msg[13]:8 *C 21.5100 25.9210
*N req_msg[13]:9 *C 21.5440 24.3900
*N req_msg[13]:10 *C 21.4920 24.1880

*CAP
1 req_msg[13] req_msg[29] 0.00132349
2 req_msg[13]:2 req_msg[29]:2 0.00721496
3 req_msg[13]:3 req_msg[29]:3 9.28009e-05
4 req_msg[13]:2 net5:4 0.00179639
5 req_msg[13]:3 net5:4 0.00095403
6 req_msg[13] 0.0132645
7 req_msg[13]:2 0.0930873
8 req_msg[13]:3 0.0168057
9 req_msg[13]:10 0.0

*RES
1 req_msg[13] req_msg[13]:7 15.8842 //  $l=1.3710 $w=0.0440 $lvl=13
2 req_msg[13] req_msg[13]:8 1.84417 //  $l=0.1600 $w=0.0440 $lvl=13
3 input5:a req_msg[13]:5 12.9046 //  $vc=8 $savl=1 $savc=2 $cover_dir=0 $a=0.00264000 $lvl=16
4 input5:a req_msg[13]:4 0.001 //  $l=0.0000 $w=10.0000 $lvl=15
5 input5:a req_msg[13]:10 2.16074 //  $l=0.2020 $w=0.0680 $lvl=15
6 req_msg[13]:2 req_msg[13]:7 0.591154 //  $l=0.0500 $w=0.0440 $lvl=13
7 req_msg[13]:3 req_msg[13]:6 1.37312 //  $l=0.1260 $w=0.0440 $lvl=14
8 req_msg[13]:5 req_msg[13]:6 0.001 //  $l=0.0180 $w=10.0000 $lvl=14
9 req_msg[13]:6 req_msg[13]:9 0.505134 //  $l=0.0340 $w=0.0440 $lvl=14
10 req_msg[13]:6 req_msg[13]:7 13.0685 //  $vc=8 $savl=0 $savc=2 $cover_dir=1 $a=0.00255200 $lvl=17
*END

*D_NET req_msg[14] 0.565682

*CONN
*P req_msg[14] I *C 25.7610 15.5700
*I input6:a I *C 20.9520 15.5700 *D b15bfn000ar1n02x5
*N req_msg[14]:2 *C 21.5500 15.5700
*N req_msg[14]:3 *C 21.6000 15.4440
*N req_msg[14]:4 *C 20.9000 15.5700
*N req_msg[14]:5 *C 20.9520 15.5700
*N req_msg[14]:6 *C 20.9520 15.5700
*N req_msg[14]:7 *C 21.6000 15.5700
*N req_msg[14]:8 *C 21.6000 15.5700
*N req_msg[14]:9 *C 21.6000 15.5700
*N req_msg[14]:10 *C 25.9210 15.5700
*N req_msg[14]:11 *C 21.6000 15.6200
*N req_msg[14]:12 *C 21.6340 15.5700
*N req_msg[14]:13 *C 20.9520 15.3680

*CAP
1 req_msg[14] resp_msg[14] 0.00438321
2 req_msg[14]:2 resp_msg[14]:2 0.00318166
3 req_msg[14] resp_msg[15] 0.00178435
4 req_msg[14] resp_msg[15]:2 0.00168527
5 req_msg[14] resp_msg[15]:3 0.000629026
6 req_msg[14] resp_msg[15]:4 0.000823049
7 req_msg[14]:2 resp_msg[15]:2 0.00168527
8 req_msg[14]:2 resp_msg[15]:3 0.000629026
9 req_msg[14]:2 resp_msg[15]:4 0.000823049
10 req_msg[14] _018_:3 0.00406788
11 req_msg[14]:2 _018_:2 0.00406788
12 req_msg[14] _049_:27 0.00466797
13 req_msg[14] _049_:58 0.00510173
14 req_msg[14] _049_:60 0.000362221
15 req_msg[14]:2 _049_:27 0.00466797
16 req_msg[14]:2 _049_:57 0.00510173
17 req_msg[14]:2 _049_:59 0.000362221
18 req_msg[14]:3 _049_:50 3.87818e-05
19 req_msg[14] _051_:45 0.00424102
20 req_msg[14]:2 _051_:44 0.00424102
21 req_msg[14] _209_:71 0.00309935
22 req_msg[14]:2 _209_:70 0.00309935
23 req_msg[14] _213_:43 0.00292473
24 req_msg[14]:2 _213_:42 0.00292473
25 req_msg[14] _251_:45 0.00252135
26 req_msg[14]:2 _251_:44 0.00252135
27 req_msg[14]:3 _251_:44 0.011104
28 req_msg[14]:3 _251_:45 0.011104
29 req_msg[14]:4 _251_:44 0.00306285
30 req_msg[14]:4 _251_:45 0.00306285
31 req_msg[14] clknet_2_3__leaf_clk:13 0.00300971
32 req_msg[14]:2 clknet_2_3__leaf_clk:13 0.00300971
33 req_msg[14]:4 dpath\.a_lt_b\$in0[13]:5 0.00280164
34 req_msg[14]:4 dpath\.a_lt_b\$in0[13]:6 0.00280164
35 req_msg[14] dpath\.a_lt_b\$in0[14]:7 0.00112762
36 req_msg[14] dpath\.a_lt_b\$in0[14]:8 0.00338347
37 req_msg[14] dpath\.a_lt_b\$in0[14]:12 0.00205403
38 req_msg[14]:2 dpath\.a_lt_b\$in0[14]:7 0.00112762
39 req_msg[14]:2 dpath\.a_lt_b\$in0[14]:8 0.00338347
40 req_msg[14]:2 dpath\.a_lt_b\$in0[14]:12 0.00205403
41 req_msg[14]:4 dpath\.a_lt_b\$in0[14]:10 1.46825e-06
42 req_msg[14] dpath\.a_lt_b\$in1[15]:8 0.0048063
43 req_msg[14]:2 dpath\.a_lt_b\$in1[15]:7 0.0048063
44 req_msg[14] net42:6 0.00667005
45 req_msg[14]:2 net42:6 0.00667005
46 req_msg[14]:4 net42:10 0.000298562
47 req_msg[14]:4 net6:4 0.0244166
48 req_msg[14] 0.162201
49 req_msg[14]:2 0.150634
50 req_msg[14]:3 0.0147074
51 req_msg[14]:4 0.0677482
52 req_msg[14]:13 0.0

*RES
1 req_msg[14] req_msg[14]:9 47.4555 //  $l=4.1610 $w=0.0440 $lvl=12
2 req_msg[14] req_msg[14]:10 1.84025 //  $l=0.1600 $w=0.0440 $lvl=12
3 input6:a req_msg[14]:6 12.9046 //  $vc=8 $savl=1 $savc=2 $cover_dir=0 $a=0.00264000 $lvl=16
4 input6:a req_msg[14]:5 0.001 //  $l=0.0000 $w=10.0000 $lvl=15
5 input6:a req_msg[14]:13 2.16074 //  $l=0.2020 $w=0.0680 $lvl=15
6 req_msg[14]:2 req_msg[14]:9 0.56539 //  $l=0.0500 $w=0.0440 $lvl=12
7 req_msg[14]:3 req_msg[14]:8 1.46091 //  $l=0.1260 $w=0.0440 $lvl=13
8 req_msg[14]:4 req_msg[14]:6 0.667505 //  $l=0.0520 $w=0.0440 $lvl=14
9 req_msg[14]:6 req_msg[14]:7 7.82242 //  $l=0.6480 $w=0.0440 $lvl=14
10 req_msg[14]:7 req_msg[14]:12 0.398313 //  $l=0.0340 $w=0.0440 $lvl=14
11 req_msg[14]:7 req_msg[14]:8 13.0685 //  $vc=8 $savl=0 $savc=2 $cover_dir=1 $a=0.00255200 $lvl=17
12 req_msg[14]:8 req_msg[14]:11 0.579725 //  $l=0.0500 $w=0.0440 $lvl=13
13 req_msg[14]:8 req_msg[14]:9 13.0685 //  $vc=8 $savl=0 $savc=2 $cover_dir=0 $a=0.00255200 $lvl=18
*END

*D_NET req_msg[15] 0.192663

*CONN
*P req_msg[15] I *C 25.7610 19.1700
*I input7:a I *C 24.4080 19.8000 *D b15bfn000ar1n02x5
*N req_msg[15]:2 *C 25.3300 19.1700
*N req_msg[15]:3 *C 25.3800 19.1360
*N req_msg[15]:4 *C 24.3560 19.8000
*N req_msg[15]:5 *C 24.4080 19.8000
*N req_msg[15]:6 *C 24.4080 19.8000
*N req_msg[15]:7 *C 25.3800 19.8000
*N req_msg[15]:8 *C 25.3800 19.8000
*N req_msg[15]:9 *C 25.3800 19.1700
*N req_msg[15]:10 *C 25.3800 19.1700
*N req_msg[15]:11 *C 25.9210 19.1700
*N req_msg[15]:12 *C 25.3800 19.8500
*N req_msg[15]:13 *C 25.4140 19.8000
*N req_msg[15]:14 *C 24.4080 19.6880
*N req_msg[15]:15 *C 24.4080 19.9120

*CAP
1 req_msg[15] req_msg[31] 0.00441693
2 req_msg[15]:2 req_msg[31]:2 0.00992738
3 req_msg[15]:3 req_msg[31]:2 0.00168953
4 req_msg[15]:4 req_msg[31]:2 0.0126007
5 req_msg[15]:4 req_msg[31]:3 0.00129012
6 req_msg[15] resp_msg[15] 0.000440516
7 req_msg[15]:2 resp_msg[15]:2 0.000704372
8 req_msg[15]:2 resp_msg[15]:3 0.000740047
9 req_msg[15]:3 resp_msg[15]:2 3.52996e-05
10 req_msg[15]:3 resp_msg[15]:4 0.000279221
11 req_msg[15]:4 resp_msg[15]:4 0.000956841
12 req_msg[15]:3 net7:4 0.000507105
13 req_msg[15]:4 net7:4 0.0212962
14 req_msg[15] 0.0107708
15 req_msg[15]:2 0.0179015
16 req_msg[15]:3 0.0383095
17 req_msg[15]:4 0.0707964
18 req_msg[15]:15 0.0

*RES
1 req_msg[15] req_msg[15]:10 4.428 //  $l=0.3810 $w=0.0440 $lvl=12
2 req_msg[15] req_msg[15]:11 1.85953 //  $l=0.1600 $w=0.0440 $lvl=12
3 input7:a req_msg[15]:6 11.6141 //  $vc=12 $savl=0 $savc=2 $cover_dir=0 $a=0.00264000 $lvl=16
4 input7:a req_msg[15]:5 0.001 //  $l=0.0000 $w=10.0000 $lvl=15
5 input7:a req_msg[15]:14 1.13616 //  $l=0.1120 $w=0.0680 $lvl=15
6 input7:a req_msg[15]:15 1.13616 //  $l=0.1120 $w=0.0680 $lvl=15
7 req_msg[15]:2 req_msg[15]:10 0.581103 //  $l=0.0500 $w=0.0440 $lvl=12
8 req_msg[15]:3 req_msg[15]:9 0.391261 //  $l=0.0340 $w=0.0440 $lvl=13
9 req_msg[15]:4 req_msg[15]:6 0.665764 //  $l=0.0520 $w=0.0440 $lvl=14
10 req_msg[15]:6 req_msg[15]:7 11.4622 //  $l=0.9720 $w=0.0440 $lvl=14
11 req_msg[15]:7 req_msg[15]:13 0.391886 //  $l=0.0340 $w=0.0440 $lvl=14
12 req_msg[15]:7 req_msg[15]:8 13.0685 //  $vc=8 $savl=0 $savc=2 $cover_dir=1 $a=0.00255200 $lvl=17
13 req_msg[15]:8 req_msg[15]:12 0.575384 //  $l=0.0500 $w=0.0440 $lvl=13
14 req_msg[15]:8 req_msg[15]:9 7.24983 //  $l=0.6300 $w=0.0440 $lvl=13
15 req_msg[15]:9 req_msg[15]:10 13.0685 //  $vc=8 $savl=0 $savc=2 $cover_dir=0 $a=0.00255200 $lvl=18
*END

*D_NET req_msg[16] 0.123117

*CONN
*P req_msg[16] I *C 0.1600 11.0700
*I input8:a I *C 1.5120 11.0700 *D b15bfn000ar1n02x5
*N req_msg[16]:2 *C 1.4900 11.0700
*N req_msg[16]:3 *C 1.4400 10.9440
*N req_msg[16]:4 *C 1.4060 11.0700
*N req_msg[16]:5 *C 1.5120 11.0700
*N req_msg[16]:6 *C 1.5120 11.0700
*N req_msg[16]:7 *C 1.4400 11.0700
*N req_msg[16]:8 *C 1.4400 11.0700
*N req_msg[16]:9 *C 1.4400 11.0700
*N req_msg[16]:10 *C 0.0000 11.0700
*N req_msg[16]:11 *C 1.4400 11.1200
*N req_msg[16]:12 *C 1.5660 11.0700
*N req_msg[16]:13 *C 1.5120 10.8680

*CAP
1 req_msg[16] resp_msg[0] 0.00226137
2 req_msg[16]:2 resp_msg[0] 0.00676101
3 req_msg[16]:2 resp_msg[0]:2 0.00676101
4 req_msg[16]:3 resp_msg[0] 8.85981e-05
5 req_msg[16]:3 resp_msg[0]:2 8.85981e-05
6 req_msg[16] resp_rdy 0.00305568
7 req_msg[16]:2 resp_rdy 0.00942821
8 req_msg[16]:2 resp_rdy:2 0.00942821
9 req_msg[16]:2 resp_rdy:3 0.000320325
10 req_msg[16]:3 resp_rdy 0.000914395
11 req_msg[16]:3 resp_rdy:2 0.000914395
12 req_msg[16]:3 resp_rdy:3 7.00245e-05
13 req_msg[16]:3 resp_rdy:4 0.000211952
14 req_msg[16]:4 resp_rdy:3 4.84358e-05
15 req_msg[16]:4 resp_rdy:4 0.000662078
16 req_msg[16] resp_val 0.0004235
17 req_msg[16]:2 resp_val 0.00111068
18 req_msg[16]:2 resp_val:2 0.00111068
19 req_msg[16]:4 net8:2 0.00259548
20 req_msg[16]:4 net8:3 0.0025047
21 req_msg[16] 0.00948365
22 req_msg[16]:2 0.0434186
23 req_msg[16]:3 0.00656382
24 req_msg[16]:4 0.014892
25 req_msg[16]:13 0.0

*RES
1 req_msg[16] req_msg[16]:10 1.83916 //  $l=0.1600 $w=0.0440 $lvl=12
2 req_msg[16] req_msg[16]:9 14.7133 //  $l=1.2800 $w=0.0440 $lvl=12
3 input8:a req_msg[16]:6 12.9046 //  $vc=8 $savl=1 $savc=2 $cover_dir=0 $a=0.00264000 $lvl=16
4 input8:a req_msg[16]:5 0.001 //  $l=0.0000 $w=10.0000 $lvl=15
5 input8:a req_msg[16]:13 2.16074 //  $l=0.2020 $w=0.0680 $lvl=15
6 req_msg[16]:2 req_msg[16]:9 0.574738 //  $l=0.0500 $w=0.0440 $lvl=12
7 req_msg[16]:3 req_msg[16]:8 1.45748 //  $l=0.1260 $w=0.0440 $lvl=13
8 req_msg[16]:4 req_msg[16]:7 0.391365 //  $l=0.0340 $w=0.0440 $lvl=14
9 req_msg[16]:6 req_msg[16]:12 0.623051 //  $l=0.0540 $w=0.0440 $lvl=14
10 req_msg[16]:6 req_msg[16]:7 0.830517 //  $l=0.0720 $w=0.0440 $lvl=14
11 req_msg[16]:7 req_msg[16]:8 13.0685 //  $vc=8 $savl=0 $savc=2 $cover_dir=1 $a=0.00255200 $lvl=17
12 req_msg[16]:8 req_msg[16]:11 0.576302 //  $l=0.0500 $w=0.0440 $lvl=13
13 req_msg[16]:8 req_msg[16]:9 13.0685 //  $vc=8 $savl=0 $savc=2 $cover_dir=0 $a=0.00255200 $lvl=18
*END

*D_NET req_msg[17] 0.180905

*CONN
*P req_msg[17] I *C 0.1600 6.5700
*I input9:a I *C 1.9440 5.9400 *D b15bfn000ar1n02x5
*N req_msg[17]:2 *C 1.9400 6.5700
*N req_msg[17]:3 *C 1.8900 5.8900
*N req_msg[17]:4 *C 1.8560 5.9400
*N req_msg[17]:5 *C 1.9440 5.9400
*N req_msg[17]:6 *C 1.9440 5.9400
*N req_msg[17]:7 *C 1.8900 5.9400
*N req_msg[17]:8 *C 1.8900 5.9400
*N req_msg[17]:9 *C 1.8900 6.5700
*N req_msg[17]:10 *C 1.8900 6.5700
*N req_msg[17]:11 *C 0.0000 6.5700
*N req_msg[17]:12 *C 1.8900 6.6040
*N req_msg[17]:13 *C 2.0160 5.9400
*N req_msg[17]:14 *C 1.9440 5.8280
*N req_msg[17]:15 *C 1.9440 6.0520

*CAP
1 req_msg[17] req_msg[1] 0.000892813
2 req_msg[17]:2 req_msg[1]:2 0.00575046
3 req_msg[17]:2 req_msg[1]:3 2.52939e-05
4 req_msg[17] resp_msg[1] 0.00102219
5 req_msg[17]:2 resp_msg[1] 0.00409826
6 req_msg[17]:2 resp_msg[1]:2 0.00409826
7 req_msg[17]:3 resp_msg[1] 1.76498e-05
8 req_msg[17]:3 resp_msg[1]:2 1.76498e-05
9 req_msg[17]:3 net36:50 0.00103336
10 req_msg[17]:3 net36:51 0.00103336
11 req_msg[17]:3 net36:105 2.56809e-05
12 req_msg[17]:4 net36:50 0.000329125
13 req_msg[17]:4 net36:51 0.000329125
14 req_msg[17]:3 net9:2 0.00635245
15 req_msg[17] 0.0125134
16 req_msg[17]:2 0.0714471
17 req_msg[17]:3 0.0581572
18 req_msg[17]:4 0.0137611
19 req_msg[17]:15 0.0

*RES
1 req_msg[17] req_msg[17]:11 1.84417 //  $l=0.1600 $w=0.0440 $lvl=12
2 req_msg[17] req_msg[17]:10 19.9401 //  $l=1.7300 $w=0.0440 $lvl=12
3 input9:a req_msg[17]:6 11.6141 //  $vc=12 $savl=0 $savc=2 $cover_dir=0 $a=0.00264000 $lvl=16